; Filename: models/UTnet_v2_April2016.inp
; WNTR: 0.1.6
; Created: 2019-05-06 08:20:34
[TITLE]
"EPANET UT campus,"

[JUNCTIONS]
;ID                      Elevation       Demand Pattern                 
 14metersotLLbldgs                601               0                            ;
 2690-A                           554               0                            ;
 2690-B                           554               0                            ;
 2856-A                           609               0                            ;
 2856-B                           609               0                            ;
 2889-A                           606               0                            ;
 2889-B                           606               0                            ;
 2903-A                           604               0                            ;
 2903-B                           604               0                            ;
 2908-A                           605               0                            ;
 2908-B                           605               0                            ;
 2969-A                           604               0                            ;
 2969-B                           604               0                            ;
 2976-A                           602               0                            ;
 2976-B                           602               0                            ;
 3007-A                           595               0                            ;
 3007-B                           595               0                            ;
 3024-A                           583               0                            ;
 3024-B                           583               0                            ;
 3074-A                           584               0                            ;
 3074-B                           584               0                            ;
 3106-A                           529               0                            ;
 3106-B                           529               0                            ;
 3111-A                           553               0                            ;
 3111-B                           553               0                            ;
 3153-A                           502               0                            ;
 3153-B                           502               0                            ;
 3160-A                           546               0                            ;
 3160-B                           546               0                            ;
 3177-A                           514               0                            ;
 3177-B                           514               0                            ;
 3191-A                           531               0                            ;
 3191-B                           531               0                            ;
 3195-A                           512               0                            ;
 3195-B                           512               0                            ;
 3199-A                           513               0                            ;
 3199-B                           513               0                            ;
 3250-A                           539               0                            ;
 3250-B                           539               0                            ;
 3274-A                           566               0                            ;
 3274-B                           566               0                            ;
 3313-A                           529               0                            ;
 3313-B                           529               0                            ;
 3381-A                           521               0                            ;
 3381-B                           521               0                            ;
 3385-A                           524               0                            ;
 3385-B                           524               0                            ;
 3387-A                           525               0                            ;
 3387-B                           525               0                            ;
 3424-A                           609               0                            ;
 3424-B                           609               0                            ;
 3426-A                           599               0                            ;
 3426-B                           599               0                            ;
 3430-A                           603               0                            ;
 3430-B                           603               0                            ;
 3434-A                           593               0                            ;
 3434-B                           593               0                            ;
 3446-A                           575               0                            ;
 3446-B                           575               0                            ;
 3447-A                           588               0                            ;
 3447-B                           588               0                            ;
 3456-A                           557               0                            ;
 3456-B                           557               0                            ;
 3487-A                           579               0                            ;
 3487-B                           579               0                            ;
 3499-A                           551               0                            ;
 3499-B                           551               0                            ;
 3505-A                           553               0                            ;
 3505-B                           553               0                            ;
 3536-A                           592               0                            ;
 3536-B                           592               0                            ;
 3541-A                           593               0                            ;
 3541-B                           593               0                            ;
 3561-A                           566               0                            ;
 3561-B                           566               0                            ;
 3573-A                           560               0                            ;
 3573-B                           560               0                            ;
 3578-A                           561               0                            ;
 3578-B                           561               0                            ;
 3598-A                           530               0                            ;
 3598-B                           530               0                            ;
 3607-A                           552               0                            ;
 3607-B                           552               0                            ;
 3608-A                           558               0                            ;
 3608-B                           558               0                            ;
 3615-A                           511               0                            ;
 3615-B                           511               0                            ;
 3619-A                           568               0                            ;
 3619-B                           568               0                            ;
 3631-A                           552               0                            ;
 3631-B                           552               0                            ;
 3639-A                           552               0                            ;
 3639-B                           552               0                            ;
 3832-A                           561               0                            ;
 3832-B                           561               0                            ;
 3837-A                           549               0                            ;
 3837-B                           549               0                            ;
 3842-A                           509               0                            ;
 3842-B                           509               0                            ;
 4052-A                           572               0                            ;
 4052-B                           572               0                            ;
 4055-A                           572               0                            ;
 4055-B                           572               0                            ;
 4135-A                           600               0                            ;
 4135-B                           600               0                            ;
 4156-A                           581               0                            ;
 4156-B                           581               0                            ;
 BFPFC3                           609               0                            ;
 BLDGACEFL                        550     2.394444444                            ;
 BLDGADH                          610               0                            ;
 BLDGARC                          552     4.751157407                            ;
 BLDGBAT                          586               0                            ;
 BLDGBEL                          526     0.729166667                            ;
 BLDGBEL2                         526     0.729166667                            ;
 BLDGBEN                          567     0.548611111                            ;
 BLDGBME2                         593               4                            ;
 BLDGBRB                          545     0.419930556                            ;
 BLDGBRG1                         527     0.009259259                            ;
 BLDGBRG2                         527     0.009259259                            ;
 BLDGBUR                          576     0.837962963                            ;
 BLDGCBA                          552     1.216261574                            ;
 BLDGCBA3                         551     1.216261574                            ;
 BLDGCMA2                         599     2.894675926                            ;
 BLDGCPE                          555               0                            ;
 BLDGCPE2                         561               0                            ;
 BLDGCRD                          603     2.726851852                            ;
 BLDGCRH                          527     3.912037037                            ;
 BLDGCS4                          557     8.716342593                            ;
 BLDGCS52                         553     279.0523148                            ;
 BLDGCS6                          546     15.37268519                            ;
 BLDGCT1                          525               0                            ;
 BLDGCT7                          524               0                            ;
 BLDGCT72                         524               0                            ;
 BLDGDFFFL                        583               0                            ;
 BLDGEAS1                         532     0.655092593                            ;
 BLDGECJ1                         556     3.072916667                            ;
 BLDGECJ2                         557     3.072916667                            ;
 BLDGENS                          554               0                            ;
 BLDGEPS                          549     0.299606481                            ;
 BLDGERC                          529     6.101851852                            ;
 BLDGGDC                          549     0.668132716                            ;
 BLDGGDC2                         548     0.668132716                            ;
 BLDGGDC3                         546     0.668132716                            ;
 BLDGGRE                          546     13.11824074                            ;
 BLDGHRC                          574     1.362731481                            ;
 BLDGHRH                          571        1.638125                            ;
 BLDGJBG3                         532     1.428240741                            ;
 BLDGJCD1                         537          29.375                            ;
 BLDGJCD2                         538          29.375                            ;
 BLDGJHH                          543               0                            ;
 BLDGJON                          566     1.203703704                            ;
 BLDGKIN                          600               0                            ;
 BLDGLBJ                          593     1.007638889                            ;
 BLDGLTD                          587     4.715277778                            ;
 BLDGLTHFL                        528               0                            ;
 BLDGMAI                          594     3.436828704                            ;
 BLDGMBB                          566     2.145061728                            ;
 BLDGMBB2                         566     2.145061728                            ;
 BLDGMBBFL                        561     2.145061728                            ;
 BLDGMEZ                          577     1.138888889                            ;
 BLDGMFH                          543     0.801388889                            ;
 BLDGMHD1                         541         0.46875                            ;
 BLDGMHD2                         542         0.46875                            ;
 BLDGMNC1                         536     1.944444444                            ;
 BLDGMNC2                         536     1.944444444                            ;
 BLDGMRH                          553      0.82568287                            ;
 BLDGMRHFL                        555      0.82568287                            ;
 BLDGNEZ                          527     8.481481481                            ;
 BLDGNHB                          571     4.091203704                            ;
 BLDGNHB2                         568     4.091203704                            ;
 BLDGNOA2                         573      0.74537037                            ;
 BLDGNOAFL                        573      0.74537037                            ;
 BLDGNUR                          521     0.800925926                            ;
 BLDGOLDPHR                       580     0.553240741                            ;
 BLDGPAT                          554      1.43287037                            ;
 BLDGPAT2                         554      1.43287037                            ;
 BLDGPHR                          569     0.553240741                            ;
 BLDGPPBFL                        586               0                            ;
 BLDGPPE                          547               0                            ;
 BLDGPPL                          530     81.68755787                            ;
 BLDGPPL2                         532     81.68755787                            ;
 BLDGRLM                          562               0                            ;
 BLDGRSC                          529     0.949074074                            ;
 BLDGRSC2                         534     0.949074074                            ;
 BLDGSACNE                        542     1.611603009                            ;
 BLDGSACNW                        542     1.611603009                            ;
 BLDGSACSE                        542     1.611603009                            ;
 BLDGSACSW                        542     1.611603009                            ;
 BLDGSAG                          594               0                            ;
 BLDGSEA                          565     0.626388889                            ;
 BLDGSEA2                         565     0.626388889                            ;
 BLDGSJH2                         529     6.651234568                            ;
 BLDGSJH3                         529     6.651234568                            ;
 BLDGSJH4                         529     6.651234568                            ;
 BLDGSRHEast                      594     1.017361111                            ;
 BLDGSRHWest                      593     1.017361111                            ;
 BLDGSSBFL                        589     3.492824074                            ;
 BLDGSTD                          568     9.192291667                            ;
 BLDGTCC                          581     0.743055556                            ;
 BLDGTSC                          531     7.467592593                            ;
 BLDGTTC                          502               0                            ;
 BLDGUTCANDLOOP                   552     1.678240741                            ;
 BLDGWAG                          562               0                            ;
 BLDGWEL2                         559     5.525462963                            ;
 BLDGWEL3                         559     5.525462963                            ;
 BLDGWRW                          550     1.923611111                            ;
 BLDGWWH                          592               0                            ;
 COAFHNO#3                      551.5               0                            ;
 EASTMALLLOOP                     552               0                            ;
 FH#139843                      595.5               0                            ;
 FH#139879                      596.5               0                            ;
 FH#139900                      596.5               0                            ;
 FH#139929                      593.5               0                            ;
 FH137734                       548.5               0                            ;
 FH138092                       541.5               0                            ;
 FH138132                       543.5               0                            ;
 FH138142                       598.5               0                            ;
 FH138170                       585.5               0                            ;
 FH138232                       571.5               0                            ;
 FH138589                       567.5               0                            ;
 FH138649                       600.5               0                            ;
 FH138772                       563.5               0                            ;
 FH138806                       538.5               0                            ;
 FH139218                       535.5               0                            ;
 FH139245                       560.5               0                            ;
 FH139352                       537.5               0                            ;
 FH139526                       535.5               0                            ;
 FH139557                       536.5               0                            ;
 FH139562                       567.5               0                            ;
 FH139581                       589.5               0                            ;
 FH139651                       570.5               0                            ;
 FH139875                       560.5               0                            ;
 FH140018                       561.5               0                            ;
 FH140525                       616.5               0                            ;
 FH140577                       560.5               0                            ;
 FH140661                       613.5               0                            ;
 FH140724                       555.5               0                            ;
 FH140964                       603.5               0                            ;
 FH141169                       559.5               0                            ;
 FH141507                       603.5               0                            ;
 FH141684                       612.5               0                            ;
 FH141918                       589.5               0                            ;
 FH142185                       604.5               0                            ;
 FH142190                       571.5               0                            ;
 FH142250                       547.5               0                            ;
 FH142545                       606.5               0                            ;
 FH142555                       606.5               0                            ;
 FH142798                       571.5               0                            ;
 FH142833                       580.5               0                            ;
 FH142917                       563.5               0                            ;
 FH142979                       570.5               0                            ;
 FH143034                       596.5               0                            ;
 FH143046                       562.5               0                            ;
 FH143076                       549.5               0                            ;
 FH143083                       537.5               0                            ;
 FH143148                       599.5               0                            ;
 FH143205                       606.5               0                            ;
 FH143245                       525.5               0                            ;
 FH143260                       605.5               0                            ;
 FH143270                       595.5               0                            ;
 FH143445                       556.5               0                            ;
 FH143496                       601.5               0                            ;
 FH143832                       531.5               0                            ;
 FH143887                       595.5               0                            ;
 FH144053                       544.5               0                            ;
 FH144064                       551.5               0                            ;
 FH144101                       584.5               0                            ;
 FH144131                       556.5               0                            ;
 FH144427                       589.5               0                            ;
 FH144548                       587.5               0                            ;
 FH144615                       569.5               0                            ;
 FH144650                       557.5               0                            ;
 FH144764                       541.5               0                            ;
 FH144832                       531.5               0                            ;
 FH144975                       579.5               0                            ;
 FH145059                       585.5               0                            ;
 FH145433                       508.5               0                            ;
 FH146028                       583.5               0                            ;
 FH146441                       562.5               0                            ;
 FH146896                       527.5               0                            ;
 FH146909                       527.5               0                            ;
 FH147432                       525.5               0                            ;
 FH147778                       520.5               0                            ;
 FH147789                       494.5               0                            ;
 FH222807                       582.5               0                            ;
 FH222927                       549.5               0                            ;
 FH223003                       521.5               0                            ;
 FH223011                       503.5               0                            ;
 FH223071                       541.5               0                            ;
 FH244524                       600.5               0                            ;
 FH245591                       601.5               0                            ;
 FH250338                       503.5               0                            ;
 FH252684                       529.5               0                            ;
 FH252686                       530.5               0                            ;
 FH252688                       526.5               0                            ;
 FH477641                       497.5               0                            ;
 FH491849                       589.5               0                            ;
 FH540993                       611.5               0                            ;
 FH544926                       601.5               0                            ;
 FH544936                       603.5               0                            ;
 FH560380                       553.5               0                            ;
 FH599460                       512.5               0                            ;
 FH599465                       514.5               0                            ;
 FH604120                       597.5               0                            ;
 FH621344                       614.5               0                            ;
 FH630257                       598.5               0                            ;
 FHNo#1                         612.5               0                            ;
 FHNo#2                         614.5               0                            ;
 FireLBJ                          567               0                            ;
 J-1                              624               0                            ;
 J-100                            580               0                            ;
 J-1000                           542               0                            ;
 J-1002                           546               0                            ;
 J-1004                           543               0                            ;
 J-1006                           543               0                            ;
 J-1008                           539               0                            ;
 J-1009                           516               0                            ;
 J-101                            551               0                            ;
 J-1011                           516               0                            ;
 J-1016                           580               0                            ;
 J-1019                           555               0                            ;
 J-102                            616               0                            ;
 J-1020                           572               0                            ;
 J-1025                           570               0                            ;
 J-1026                           578               0                            ;
 J-1027                           578               0                            ;
 J-1028                           581               0                            ;
 J-1029                           579               0                            ;
 J-103                            599               0                            ;
 J-1030                           596               0                            ;
 J-1031                           600               0                            ;
 J-1033                           602               0                            ;
 J-1034                           595               0                            ;
 J-1035                           594               0                            ;
 J-1036                           582               0                            ;
 J-1037                           583               0                            ;
 J-1038                           556               0                            ;
 J-1039                           543               0                            ;
 J-1040                           544               0                            ;
 J-1041                           595               0                            ;
 J-105                            538               0                            ;
 J-1051                           550               0                            ;
 J-1052                           554               0                            ;
 J-1054                           544               0                            ;
 J-1055                           543               0                            ;
 J-1056                           542               0                            ;
 J-106                            539               0                            ;
 J-1065                           607               0                            ;
 J-1066                           605               0                            ;
 J-1067                           588               0                            ;
 J-1068                           601               0                            ;
 J-107                            538               0                            ;
 J-1070                           601               0                            ;
 J-1071                           612               0                            ;
 J-1072                           612               0                            ;
 J-1073                           605               0                            ;
 J-1074                           605               0                            ;
 J-1075                           612               0                            ;
 J-1076                           613               0                            ;