[TITLE]
Scenario: Base 
Date: 2/25/2020 4:37:58 PM 

[JUNCTIONS]
;ID              	Elev        	Demand      	Pattern         
 66              	0           	0           	                	;
 67              	0           	0           	                	;
 74              	104.285     	0           	                	;
 75              	103.9       	0           	                	;
 76              	103.9       	0           	                	;
 79              	127.4397    	0           	                	;
 80              	127.4397    	0           	                	;
 81              	127.4397    	0           	                	;
 82              	127.4397    	0           	                	;
 83              	110.5908    	0           	                	;
 85              	104.235     	0           	                	;
 86              	113.536     	0           	                	;
 87              	112.1698    	0           	                	;
 88              	104.235     	0           	                	;
 90              	105.3069    	0           	                	;
 92              	115.7843    	0           	                	;
 94              	120.173     	0           	                	;
 95              	105.5114    	0           	                	;
 96              	114.4358    	0           	                	;
 98              	115.652     	0           	                	;
 99              	125.4503    	0           	                	;
 100             	104.007     	0           	                	;
 101             	112.1698    	0           	                	;
 102             	119.3156    	0           	                	;
 103             	110.3692    	0           	                	;
 104             	113.0124    	0           	                	;
 105             	104.235     	0           	                	;
 107             	106.0411    	0           	                	;
 108             	102.0469    	0           	                	;
 110             	105.3548    	0           	                	;
 111             	104.173     	0           	                	;
 113             	103.4829    	0           	                	;
 114             	103.9024    	0           	                	;
 115             	103.5       	0           	                	;
 116             	102.3172    	0           	                	;
 118             	102.947     	0           	                	;
 119             	102.401     	0           	                	;
 120             	103.1778    	0           	                	;
 121             	103.2315    	0           	                	;
 122             	103.2646    	0           	                	;
 123             	102.491     	0           	                	;
 124             	104.8513    	0           	                	;
 126             	102.9253    	0           	                	;
 127             	102.7627    	0           	                	;
 128             	103.2634    	0           	                	;
 129             	101.9807    	0           	                	;
 130             	105.7061    	0           	                	;
 132             	103.5492    	0           	                	;
 133             	116.3174    	0           	                	;
 134             	101.9521    	0           	                	;
 136             	103.6777    	0           	                	;
 137             	102.3817    	0           	                	;
 138             	103.2395    	0           	                	;
 140             	102.438     	0           	                	;
 141             	102.7134    	0           	                	;
 142             	103.4524    	0           	                	;
 143             	102.3135    	0           	                	;
 144             	103.808     	0           	                	;
 145             	103.5794    	0           	                	;
 146             	102.04      	0           	                	;
 147             	102.974     	0           	                	;
 148             	108.171     	0           	                	;
 149             	103.6523    	0           	                	;
 150             	103.327     	0           	                	;
 151             	102.2534    	0           	                	;
 152             	103.5009    	0           	                	;
 153             	102.7898    	0           	                	;
 154             	103.848     	0           	                	;
 155             	102.2886    	0           	                	;
 156             	101.9416    	0           	                	;
 157             	104.7446    	0           	                	;
 158             	103.3278    	0           	                	;
 159             	103.2321    	0           	                	;
 160             	114.5262    	0           	                	;
 161             	103.363     	0           	                	;
 162             	102.2849    	0           	                	;
 163             	102.802     	0           	                	;
 164             	102.41      	0           	                	;
 165             	103.327     	0           	                	;
 166             	102.08      	0           	                	;
 167             	103.192     	0           	                	;
 168             	102.615     	0           	                	;
 169             	103.5794    	0           	                	;
 170             	106.2546    	0           	                	;
 171             	108.32      	0           	                	;
 172             	115.9766    	0           	                	;
 173             	102.9284    	0           	                	;
 174             	106.0411    	0           	                	;
 176             	108.3617    	0           	                	;
 177             	103.5512    	0           	                	;
 178             	102.849     	0           	                	;
 179             	103.179     	0           	                	;
 180             	103.7756    	0           	                	;
 181             	105.1853    	0           	                	;
 182             	102.7047    	0           	                	;
 183             	102.0902    	0           	                	;
 184             	102.2596    	0           	                	;
 185             	102.0898    	0           	                	;
 186             	102.1809    	0           	                	;
 187             	116.3174    	0           	                	;
 188             	102.0418    	0           	                	;
 189             	101.7004    	0           	                	;
 190             	103.5653    	0           	                	;
 191             	114.727     	0           	                	;
 193             	116.0874    	0           	                	;
 194             	102.548     	0           	                	;
 195             	104.5722    	0           	                	;
 196             	103.812     	0           	                	;
 197             	105.4495    	0           	                	;
 198             	102.9753    	0           	                	;
 199             	102.3889    	0           	                	;
 201             	101.864     	0           	                	;
 202             	106.8577    	0           	                	;
 203             	102.2715    	0           	                	;
 204             	103.1778    	0           	                	;
 206             	102.9253    	0           	                	;
 208             	103.1473    	0           	                	;
 209             	103.848     	0           	                	;
 210             	104.5405    	0           	                	;
 211             	113.961     	0           	                	;
 213             	102.9536    	0           	                	;
 214             	102.027     	0           	                	;
 216             	102.6926    	0           	                	;
 217             	102.981     	0           	                	;
 218             	102.4513    	0           	                	;
 219             	115.5798    	0           	                	;
 220             	102.5031    	0           	                	;
 221             	103.3612    	0           	                	;
 223             	105.0927    	0           	                	;
 224             	103.327     	0           	                	;
 225             	103.2639    	0           	                	;
 226             	103.3865    	0.0532407361111111	59              	;
 227             	102.6007    	0           	                	;
 228             	103.4277    	0           	                	;
 229             	112.6128    	0           	                	;
 230             	101.8298    	0           	                	;
 231             	108.7744    	0           	                	;
 232             	102.401     	0           	                	;
 233             	102.4935    	0           	                	;
 234             	115.521     	0           	                	;
 235             	103.2315    	0           	                	;
 236             	104.481     	0           	                	;
 237             	103.916     	0           	                	;
 238             	102.2086    	0           	                	;
 239             	102.8449    	0           	                	;
 240             	103.458     	0           	                	;
 241             	102.6066    	0           	                	;
 243             	113.8237    	0           	                	;
 244             	102.5665    	0           	                	;
 245             	112.6128    	0           	                	;
 246             	102.7077    	0           	                	;
 247             	103.816     	0           	                	;
 248             	101.8339    	0           	                	;
 249             	103.4539    	0           	                	;
 251             	104.5276    	0           	                	;
 252             	110.7013    	0           	                	;
 253             	103.3887    	0           	                	;
 254             	104.5118    	0           	                	;
 255             	103.7212    	0           	                	;
 256             	102.9753    	0           	                	;
 257             	103.4522    	0           	                	;
 258             	101.9694    	0           	                	;
 259             	104.5514    	0           	                	;
 260             	104.5514    	0           	                	;
 261             	103.2993    	0           	                	;
 263             	103.848     	0           	                	;
 264             	103.2243    	0           	                	;
 265             	101.6521    	0           	                	;
 266             	101.585     	0           	                	;
 267             	101.585     	0           	                	;
 268             	101.585     	0           	                	;
 269             	102.84      	0           	                	;
 270             	103.1235    	0           	                	;
 271             	103.848     	0           	                	;
 272             	101.8339    	0           	                	;
 273             	102.9946    	0           	                	;
 274             	106.2904    	0           	                	;
 275             	101.7004    	0           	                	;
 276             	110.6095    	0           	                	;
 277             	107.8639    	0           	                	;
 278             	107.8639    	0           	                	;
 279             	102.8646    	0           	                	;
 280             	106.63      	0           	                	;
 281             	105.6605    	0           	                	;
 282             	105.6605    	0           	                	;
 283             	105.0077    	0           	                	;
 284             	104.9241    	0           	                	;
 285             	104.139     	0           	                	;
 286             	111.1556    	0           	                	;
 287             	109.634     	0           	                	;
 288             	105.374     	0           	                	;
 289             	107.7945    	0           	                	;
 291             	104.2893    	0           	                	;
 295             	103.5641    	0           	                	;
 297             	109.734     	0           	                	;
 298             	109.734     	0           	                	;
 299             	108.6959    	0           	                	;
 300             	108.6959    	0           	                	;
 301             	101.8557    	0           	                	;
 302             	105.1115    	0           	                	;
 303             	107.7062    	0           	                	;
 304             	109.216     	0           	                	;
 305             	109.216     	0           	                	;
 306             	102.49      	0           	                	;
 307             	104.9182    	0           	                	;
 308             	104.8532    	0           	                	;
 309             	103.0942    	0           	                	;
 311             	108.6097    	0           	                	;
 312             	105.193     	0           	                	;
 314             	108.1273    	0           	                	;
 315             	104.9445    	0           	                	;
 316             	105.803     	0           	                	;
 318             	104.896     	0           	                	;
 319             	105.3115    	0           	                	;
 321             	107.03      	0           	                	;
 322             	103.3612    	0           	                	;
 323             	108.6406    	0           	                	;
 324             	104.473     	0           	                	;
 325             	106.0635    	0           	                	;
 326             	106.3802    	0           	                	;
 327             	101.6604    	0           	                	;
 328             	101.6604    	0           	                	;
 329             	101.6604    	0           	                	;
 330             	108.5435    	0           	                	;
 331             	102.2647    	0           	                	;
 333             	102.8483    	0           	                	;
 334             	102.957     	0           	                	;
 335             	103.6666    	0           	                	;
 339             	107.8328    	0           	                	;
 341             	103.581     	0           	                	;
 342             	103.581     	0           	                	;
 343             	103.933     	0           	                	;
 344             	103.933     	0           	                	;
 345             	105.3828    	0           	                	;
 346             	104.7108    	0           	                	;
 347             	105.46      	0           	                	;
 348             	106.71      	0           	                	;
 349             	106.71      	0           	                	;
 350             	102.1455    	0           	                	;
 351             	102.0079    	0           	                	;
 352             	102.9347    	0           	                	;
 353             	102.9467    	0           	                	;
 354             	102.9347    	0           	                	;
 356             	111.273     	0           	                	;
 357             	111.273     	0           	                	;
 358             	108.4127    	0           	                	;
 359             	108.4427    	0           	                	;
 360             	108.4427    	0           	                	;
 361             	108.4427    	0           	                	;
 362             	108.4427    	0           	                	;
 363             	108.4427    	0           	                	;
 364             	108.4427    	0           	                	;
 365             	108.0237    	0           	                	;
 366             	108.0237    	0           	                	;
 367             	104.204     	0           	                	;
 368             	102.6342    	0           	                	;
 369             	102.813     	0           	                	;
 370             	102.6342    	0           	                	;
 371             	102.6244    	0           	                	;
 372             	102.6244    	0           	                	;
 373             	104.741     	0           	                	;
 374             	104.741     	0           	                	;
 375             	103.2737    	0           	                	;
 376             	102.628     	0           	                	;
 377             	103.848     	0           	                	;
 378             	103.848     	0           	                	;
 379             	103.848     	0           	                	;
 380             	103.848     	0           	                	;
 381             	103.848     	0           	                	;
 382             	101.9516    	0           	                	;
 383             	102.2826    	0           	                	;
 384             	102.3158    	0           	                	;
 385             	102.928     	0           	                	;
 386             	103.466     	0           	                	;
 387             	102.9753    	0           	                	;
 388             	102.0898    	0           	                	;
 389             	102.105     	0           	                	;
 390             	104.389     	0           	                	;
 391             	102.883     	0           	                	;
 392             	102.86      	0           	                	;
 393             	102.0185    	0           	                	;
 394             	102.8727    	0           	                	;
 395             	105.4495    	0           	                	;
 396             	103.7815    	0           	                	;
 397             	102.3911    	0           	                	;
 398             	102.674     	0           	                	;
 399             	105.1463    	0           	                	;
 400             	102.1519    	0           	                	;
 401             	113.1808    	0           	                	;
 402             	104.6065    	0           	                	;
 403             	103.807     	0           	                	;
 404             	102.836     	0           	                	;
 405             	102.2718    	0           	                	;
 406             	101.6051    	0           	                	;
 407             	103.1235    	0           	                	;
 408             	103.4408    	0           	                	;
 409             	104.8592    	0           	                	;
 411             	104.8592    	0           	                	;
 412             	102.1084    	0           	                	;
 415             	105.5737    	0           	                	;
 416             	102.8622    	0           	                	;
 418             	102.8684    	0.713657361111111	59              	;
 419             	102.848     	0           	                	;
 420             	103.3865    	0           	                	;
 421             	102.242     	0           	                	;
 422             	104.361     	0           	                	;
 423             	104.7509    	0           	                	;
 425             	103.628     	0           	                	;
 426             	110.616     	0           	                	;
 427             	103.0116    	0           	                	;
 428             	106.824     	0           	                	;
 431             	103.354     	0           	                	;
 432             	103.968     	0           	                	;
 433             	103.968     	0           	                	;
 434             	103.2776    	0           	                	;
 435             	103.354     	0           	                	;
 436             	102.0321    	0           	                	;
 437             	102.0321    	0           	                	;
 438             	102.529     	0           	                	;
 439             	102.529     	0           	                	;
 440             	102.529     	0           	                	;
 441             	101.8133    	0           	                	;
 443             	103.1093    	0           	                	;
 444             	103.818     	0           	                	;
 445             	103.0594    	0           	                	;
 447             	104.785     	0           	                	;
 448             	111.033     	0           	                	;
 449             	103.8021    	0           	                	;
 450             	104.518     	0           	                	;
 451             	103.8355    	0           	                	;
 452             	103.848     	0           	                	;
 453             	104.128     	0           	                	;
 454             	103.848     	0           	                	;
 455             	103.848     	0           	                	;
 456             	103.848     	0           	                	;
 457             	104.0768    	0           	                	;
 458             	104.0768    	0           	                	;
 459             	103.848     	0           	                	;
 460             	103.848     	0           	                	;
 461             	103.848     	0           	                	;
 462             	103.848     	0           	                	;
 463             	103.848     	0           	                	;
 464             	103.2306    	0           	                	;
 465             	103.848     	0           	                	;
 466             	103.848     	0           	                	;
 467             	104.0768    	0           	                	;
 468             	103.848     	0           	                	;
 469             	103.848     	0           	                	;
 470             	103.848     	0           	                	;
 471             	103.848     	0           	                	;
 472             	103.848     	0           	                	;
 473             	104.048     	0           	                	;
 474             	103.848     	0           	                	;
 475             	103.848     	0           	                	;
 476             	103.848     	0           	                	;
 477             	103.848     	0           	                	;
 478             	104.4543    	0           	                	;
 479             	103.848     	0           	                	;
 480             	103.848     	0           	                	;
 481             	103.848     	0           	                	;
 482             	101.9516    	0           	                	;
 483             	104.007     	0           	                	;
 484             	104.007     	0           	                	;
 485             	104.007     	0           	                	;
 486             	104.007     	0           	                	;
 487             	104.007     	0           	                	;
 488             	104.133     	0           	                	;
 489             	104.133     	0           	                	;
 490             	104.133     	0           	                	;
 491             	104.053     	0           	                	;
 492             	104.053     	0           	                	;
 493             	104.1892    	0           	                	;
 494             	104.1892    	0           	                	;
 495             	103.968     	0           	                	;
 496             	103.848     	0           	                	;
 497             	103.848     	0           	                	;
 498             	103.848     	0           	                	;
 499             	106.4739    	0           	                	;
 500             	103.848     	0           	                	;
 501             	103.848     	0           	                	;
 502             	103.5436    	0           	                	;
 503             	103.5436    	0           	                	;
 504             	103.848     	0           	                	;
 505             	103.6416    	0           	                	;
 506             	103.7272    	0           	                	;
 507             	103.2294    	0           	                	;
 508             	101.6198    	0           	                	;
 509             	104.5324    	0           	                	;
 510             	103.848     	0           	                	;
 511             	107.8244    	0           	                	;
 512             	103.4033    	0           	                	;
 513             	104.133     	0           	                	;
 514             	104.048     	0           	                	;
 515             	103.848     	0           	                	;
 516             	103.848     	0           	                	;
 517             	104.5118    	0           	                	;
 518             	103.848     	0           	                	;
 519             	103.848     	0           	                	;
 520             	104.048     	0           	                	;
 521             	102.0235    	0           	                	;
 522             	106.4492    	0           	                	;
 523             	103.848     	0           	                	;
 524             	107.5982    	0           	                	;
 525             	102.634     	0           	                	;
 526             	102.2685    	0           	                	;
 527             	104.048     	0           	                	;
 528             	104.6053    	0           	                	;
 530             	103.848     	0           	                	;
 531             	104.344     	0           	                	;
 532             	104.5514    	0           	                	;
 533             	104.591     	0           	                	;
 534             	104.048     	0           	                	;
 535             	102.343     	0           	                	;
 536             	103.3151    	0           	                	;
 537             	103.901     	0           	                	;
 538             	101.9962    	0           	                	;
 539             	106.7598    	0           	                	;
 540             	102.8417    	0           	                	;
 542             	104.06      	0           	                	;
 543             	103.7756    	0           	                	;
 544             	104.003     	0           	                	;
 545             	104.591     	0           	                	;
 546             	110.505     	0           	                	;
 547             	103.0722    	0           	                	;
 548             	103.8453    	0           	                	;
 549             	102.2575    	0           	                	;
 552             	103.421     	0           	                	;
 553             	105.1174    	0           	                	;
 555             	115.9068    	0           	                	;
 556             	103.3805    	0           	                	;
 558             	102.759     	0           	                	;
 559             	112.74      	0           	                	;
 560             	102.0089    	0           	                	;
 561             	104.785     	0           	                	;
 562             	113.1804    	0           	                	;
 564             	102.759     	0           	                	;
 566             	102.6151    	0           	                	;
 567             	107.6226    	0           	                	;
 568             	103.0585    	0           	                	;
 569             	104         	0           	                	;
 570             	102.615     	0           	                	;
 572             	102.3674    	0           	                	;
 573             	103.332     	0           	                	;
 574             	114.5262    	0           	                	;
 575             	101.8598    	0           	                	;
 576             	102.8692    	0           	                	;
 577             	121.259     	0           	                	;
 579             	102.6628    	0           	                	;
 581             	104.048     	0           	                	;
 582             	103.832     	0           	                	;
 583             	103.7813    	0           	                	;
 585             	104.241     	0           	                	;
 586             	103.5646    	0           	                	;
 587             	105.548     	0           	                	;
 588             	104         	0           	                	;
 589             	103.8491    	0           	                	;
 590             	103.0412    	0           	                	;
 591             	103.8538    	0           	                	;
 592             	106.824     	0           	                	;
 593             	112.861     	0           	                	;
 594             	102.6096    	0           	                	;
 595             	101.8917    	0           	                	;
 598             	102.0168    	0           	                	;
 599             	103.2521    	0           	                	;
 600             	103.0036    	0           	                	;
 601             	103.0279    	0           	                	;