[TITLE]
Scenario: Base
Date: 12/21/2021 1:07:26 PM

[JUNCTIONS]
;ID              	Elev        	Demand      	Pattern
 2               	0           	0           	                	;
 D2A-1           	0           	0           	                	;

[RESERVOIRS]
;ID              	Head        	Pattern
 1               	100         	                	;

[TANKS]
;ID              	Elevation   	InitLevel   	MinLevel    	MaxLevel    	Diameter    	MinVol      	VolCurve

[PIPES]
;ID              	Node1           	Node2           	Length      	Diameter    	Roughness   	MinorLoss   	Status
 1               	1               	2               	1000        	12          	100         	0           	Open  	;
 2               	2               	D2A-1           	1000        	12          	100         	0           	Open  	;

[PUMPS]
;ID              	Node1           	Node2           	Parameters

[VALVES]
;ID              	Node1           	Node2           	Diameter    	Type	Setting     	MinorLoss

[TAGS]

[DEMANDS]
;Junction        	Demand      	Pattern         	Category

[STATUS]
;ID              	Status/Setting

[PATTERNS]
;ID              	Multipliers
;
 HydraulicPattern-1	0           	0           	0.0526315789473684	0.105263157894737	0.157894736842105	0.210526315789474
 HydraulicPattern-1	0.263157894736842	0.315789473684211	0.368421052631579	0.421052631578947	0.473684210526316	0.526315789473684
 HydraulicPattern-1	0.578947368421053	0.631578947368421	0.684210526315789	0.736842105263158	0.789473684210526	0.842105263157895
 HydraulicPattern-1	0.894736842105263	0.947368421052632	1           	0

[CURVES]
;ID              	X-Value     	Y-Value

[CONTROLS]

[RULES]

[ENERGY]
 Global Efficiency  	75
 Global Price       	0
 Demand Charge      	0

[EMITTERS]
;Junction        	Coefficient

[QUALITY]
;Node            	InitQual

[SOURCES]
;Node            	Type        	Quality     	Pattern

[REACTIONS]
;Type     	Pipe/Tank       	Coefficient


[REACTIONS]
 Order Bulk            	1
 Order Tank            	1
 Order Wall            	1
 Global Bulk           	0
 Global Wall           	0
 Limiting Potential    	0
 Roughness Correlation 	0

[MIXING]
;Tank            	Model

[TIMES]
 Duration           	0
 Hydraulic Timestep 	1:00
 Quality Timestep   	0:05
 Pattern Timestep   	0:00
 Pattern Start      	0:00
 Report Timestep    	1:00
 Report Start       	0:00
 Start ClockTime    	12 am
 Statistic          	None

[REPORT]
 Status             	No
 Summary            	No
 Page               	0

[OPTIONS]
 Units              	GPM
 Headloss           	H-W
 Specific Gravity   	1
 Viscosity          	0.985218181818182
 Trials             	40
 Accuracy           	0.001
 CHECKFREQ          	2
 MAXCHECK           	10
 DAMPLIMIT          	0
 Unbalanced         	Continue 10
 Pattern            	1
 Demand Multiplier  	1.0
 Emitter Exponent   	0.5
 Quality            	NONE mg/L
 Diffusivity        	1
 Tolerance          	0.01

[COORDINATES]
;Node            	X-Coord         	Y-Coord
 2               	2774.67         	7094.97
 D2A-1           	4562.38         	7094.97
 1               	968.34          	7094.97

[VERTICES]
;Link            	X-Coord         	Y-Coord

[LABELS]
;X-Coord           Y-Coord          Label & Anchor Node

[BACKDROP]
 DIMENSIONS     	788.64          	6704.75         	4742.09         	7485.20
 UNITS          	None
 FILE
 OFFSET         	0.00            	0.00

[END]
